OPT_V9/Results/My_campus_w_initial_sub_3_active_27_03_13_05/powerflow_results_t1.txt
Pandapower Network Debug Info
==================================================

BUS:
       vm_pu  va_degree      p_mw    q_mvar
0   1.052095  -4.090116  0.001191 -0.159672
1   0.967118   3.162558 -0.008194  0.055372
2   0.953937   1.754440 -0.006424  0.038575
3   1.034225  -0.844061 -0.005734 -0.057211
4   0.979956  -1.491204  0.017233  0.000141
5   0.968796   1.554032  0.003989  0.030283
6   1.007610   0.387975 -0.007379 -0.006143
7   1.019928  -0.408310 -0.005983 -0.040253
8   0.953449   3.741483 -0.005260  0.047686
9   1.000359  -0.008978  0.001261 -0.990928
10  0.999022   0.036379  0.001615  1.008148
11  0.999503   0.013329  0.000794  0.340223
12  0.993116   0.172904  0.011863  1.005384
13  0.992761   0.186540  0.018843  1.010586
14  0.992948   0.177447  0.006183  1.011070
15  0.999829   0.004878  0.000000  0.000000
16  0.999829   0.004817  0.000000  0.000000
17  0.999998   0.000523  0.000000  0.000000
18  0.999998   0.000523  0.000000  0.000000
19  0.993661   0.159063  0.000000  0.000000
20  0.993661   0.159084  0.000000  0.000000
21  0.999997   0.000581  0.000000  0.000000
22  0.999997   0.000581  0.000000  0.000000
23  1.000000   0.000000 -0.055054 -3.343391
24  1.000000   0.000479  0.000000  0.000000
--------------------------------------------------

LINE:
    p_from_mw  q_from_mvar   p_to_mw  q_to_mvar         pl_mw       ql_mvar  i_from_ka   i_to_ka      i_ka  vm_from_pu  va_from_degree  vm_to_pu  va_to_degree  loading_percent
0    0.000985     0.251521 -0.000965  -0.251478  1.947961e-05  4.285063e-05   0.009681  0.009681  0.009681    1.000000        0.000479  0.999829      0.004878         1.826626
1    0.000010     0.001000 -0.000010  -0.001000  7.925317e-10  1.743387e-09   0.000038  0.000038  0.000038    1.000000        0.000479  0.999998      0.000523         0.007262
2    0.054012     3.085871 -0.045182  -3.066448  8.829537e-03  1.942294e-02   0.118793  0.118793  0.118793    1.000000        0.000479  0.993661      0.159063        22.413853
3    0.000010     0.001000 -0.000010  -0.001000  1.814972e-09  2.656056e-09   0.000038  0.000038  0.000038    1.000000        0.000479  0.999997      0.000581         0.011321
4    0.001499    -0.990402 -0.001261   0.990928  2.388570e-04  5.254303e-04   0.038127  0.038127  0.038127    0.999829        0.004878  1.000359     -0.008978         7.193804
5    0.002171     1.008962 -0.001615  -1.008148  5.560206e-04  8.136887e-04   0.038842  0.038842  0.038842    0.999829        0.004878  0.999022      0.036379        11.424023
6    0.000844     0.340334 -0.000794  -0.340223  5.045477e-05  1.109888e-04   0.013102  0.013102  0.013102    0.999829        0.004878  0.999503      0.013329         2.472027
7    0.012113     1.005933 -0.011863  -1.005384  2.495109e-04  5.488665e-04   0.038968  0.038968  0.038968    0.993661        0.159063  0.993116      0.172904         7.352489
8    0.019345     1.011494 -0.018843  -1.010586  5.021722e-04  9.075956e-04   0.039188  0.039188  0.039188    0.993661        0.159063  0.992761      0.186540         8.519118
9    0.006512     1.011794 -0.006183  -1.011070  3.290901e-04  7.239223e-04   0.039193  0.039193  0.039193    0.993661        0.159063  0.992948      0.177447         7.394942
10   0.011965    -0.151272 -0.001191   0.159672  1.077357e-02  8.400330e-03   0.219061  0.219061  0.219061    0.999829        0.004817  1.052095     -4.090116        95.244112
11  -0.005305     0.057624  0.008194  -0.055372  2.889014e-03  2.252612e-03   0.083539  0.083539  0.083539    0.999829        0.004817  0.967118      3.162558        36.321469
12  -0.005496     0.040617  0.006424  -0.038575  9.285016e-04  2.042489e-03   0.059170  0.059170  0.059170    0.999829        0.004817  0.953937      1.754440        11.164235
13  -0.004723    -0.055385  0.005734   0.057211  1.010701e-03  1.826679e-03   0.080245  0.080245  0.080245    0.999829        0.004817  1.034225     -0.844061        17.444517
14   0.017463     0.000647 -0.017233  -0.000141  2.296388e-04  5.051523e-04   0.025383  0.025383  0.025383    0.993661        0.159084  0.979956     -1.491204         4.789303
15   0.004846     0.030952 -0.003989  -0.030283  8.573011e-04  6.684518e-04   0.045508  0.045508  0.045508    0.993661        0.159084  0.968796      1.554032        19.785875
16  -0.007301    -0.006029  0.007379   0.006143  7.801192e-05  1.141638e-04   0.013754  0.013754  0.013754    0.993661        0.159084  1.007610      0.387975         4.045321
17  -0.005440    -0.039272  0.005983   0.040253  5.427056e-04  9.808533e-04   0.057590  0.057590  0.057590    0.993661        0.159084  1.019928     -0.408310        12.519641
18  -0.002366     0.049942  0.005260  -0.047686  2.894125e-03  2.256597e-03   0.072627  0.072627  0.072627    0.993661        0.159084  0.953449      3.741483        31.576885
--------------------------------------------------

TRAFO:
    p_hv_mw  q_hv_mvar       p_lv_mw     q_lv_mvar     pl_mw   ql_mvar   i_hv_ka       i_lv_ka  vm_hv_pu  va_hv_degree  vm_lv_pu  va_lv_degree  loading_percent
0 -0.003549  -0.107415  3.559138e-03  1.084150e-01  0.000010  0.001000  0.004137  1.565947e-01  0.999829      0.004878  0.999829      0.004817         1.084920
1  0.000010   0.001000 -1.455189e-11 -1.329102e-16  0.000010  0.001000  0.000038  2.100388e-11  0.999998      0.000523  0.999998      0.000523         0.010000
2  0.007212   0.037227 -7.201662e-03 -3.623967e-02  0.000010  0.000987  0.001469  5.367050e-02  0.993661      0.159063  0.993661      0.159084         0.381609
3  0.000010   0.001000 -2.910375e-11 -7.326607e-17  0.000010  0.001000  0.000038  4.200776e-11  0.999997      0.000581  0.999997      0.000581         0.010000
4  0.055054   3.343391 -5.501625e-02 -3.339391e+00  0.000038  0.004000  0.027580  1.285507e-01  1.000000      0.000000  1.000000      0.000479         8.359611
--------------------------------------------------
